44205240
  -OEChem-10162222372D

 43 46  0     0  0  0  0  0  0999 V2000
    3.3461    1.9602    0.0000 S   0  0  0  0  0  0  0  0  0  0  0  0
    3.5025    2.9479    0.0000 O   0  0  0  0  0  0  0  0  0  0  0  0
    3.1896    0.9725    0.0000 O   0  0  0  0  0  0  0  0  0  0  0  0
    4.3337    1.8038    0.0000 N   0  0  0  0  0  0  0  0  0  0  0  0
    6.3183    0.7735    0.0000 N   0  0  0  0  0  0  0  0  0  0  0  0
    7.3183    0.7735    0.0000 N   0  0  0  0  0  0  0  0  0  0  0  0
    6.3305    4.1594    0.0000 N   0  0  0  0  0  0  0  0  0  0  0  0
    5.9523   -2.2653    0.0000 N   0  0  0  0  0  0  0  0  0  0  0  0
    8.6306   -3.5700    0.0000 N   0  0  0  0  0  0  0  0  0  0  0  0
    6.8183   -3.7653    0.0000 N   0  0  0  0  0  0  0  0  0  0  0  0
    5.7306    1.5825    0.0000 C   0  0  0  0  0  0  0  0  0  0  0  0
    4.9215    0.9948    0.0000 C   0  0  0  0  0  0  0  0  0  0  0  0
    5.1428    2.3916    0.0000 C   0  0  0  0  0  0  0  0  0  0  0  0
    6.5396    2.1703    0.0000 C   0  0  0  0  0  0  0  0  0  0  0  0
    2.3584    2.1166    0.0000 C   0  0  0  0  0  0  0  0  0  0  0  0
    6.0093   -0.1775    0.0000 C   0  0  0  0  0  0  0  0  0  0  0  0
    6.8183   -0.7653    0.0000 C   0  0  0  0  0  0  0  0  0  0  0  0
    6.4350    3.1648    0.0000 C   0  0  0  0  0  0  0  0  0  0  0  0
    7.6274   -0.1775    0.0000 C   0  0  0  0  0  0  0  0  0  0  0  0
    2.0000    3.0502    0.0000 C   0  0  0  0  0  0  0  0  0  0  0  0
    6.8183   -1.7653    0.0000 C   0  0  0  0  0  0  0  0  0  0  0  0
    7.6844   -2.2653    0.0000 C   0  0  0  0  0  0  0  0  0  0  0  0
    7.6844   -3.2653    0.0000 C   0  0  0  0  0  0  0  0  0  0  0  0
    8.6306   -1.9606    0.0000 C   0  0  0  0  0  0  0  0  0  0  0  0
    5.9523   -3.2653    0.0000 C   0  0  0  0  0  0  0  0  0  0  0  0
    9.2142   -2.7653    0.0000 C   0  0  0  0  0  0  0  0  0  0  0  0
    4.4199    0.6303    0.0000 H   0  0  0  0  0  0  0  0  0  0  0  0
    5.2860    0.4932    0.0000 H   0  0  0  0  0  0  0  0  0  0  0  0
    5.6444    2.7560    0.0000 H   0  0  0  0  0  0  0  0  0  0  0  0
    4.7783    2.8932    0.0000 H   0  0  0  0  0  0  0  0  0  0  0  0
    6.8114    1.6131    0.0000 H   0  0  0  0  0  0  0  0  0  0  0  0
    7.1356    2.3412    0.0000 H   0  0  0  0  0  0  0  0  0  0  0  0
    1.7498    1.9983    0.0000 H   0  0  0  0  0  0  0  0  0  0  0  0
    2.3692    1.4967    0.0000 H   0  0  0  0  0  0  0  0  0  0  0  0
    5.4197   -0.3691    0.0000 H   0  0  0  0  0  0  0  0  0  0  0  0
    8.2170   -0.3691    0.0000 H   0  0  0  0  0  0  0  0  0  0  0  0
    2.5788    3.2724    0.0000 H   0  0  0  0  0  0  0  0  0  0  0  0
    1.7778    3.6290    0.0000 H   0  0  0  0  0  0  0  0  0  0  0  0
    1.4212    2.8280    0.0000 H   0  0  0  0  0  0  0  0  0  0  0  0
    8.8232   -1.3713    0.0000 H   0  0  0  0  0  0  0  0  0  0  0  0
    8.8232   -4.1594    0.0000 H   0  0  0  0  0  0  0  0  0  0  0  0
    9.8342   -2.7653    0.0000 H   0  0  0  0  0  0  0  0  0  0  0  0
    5.4154   -3.5753    0.0000 H   0  0  0  0  0  0  0  0  0  0  0  0
  1  2  2  0  0  0  0
  1  3  2  0  0  0  0
  1  4  1  0  0  0  0
  1 15  1  0  0  0  0
  4 12  1  0  0  0  0
  4 13  1  0  0  0  0
  5  6  1  0  0  0  0
  5 11  1  0  0  0  0
  5 16  1  0  0  0  0
  6 19  2  0  0  0  0
  7 18  3  0  0  0  0
  8 21  1  0  0  0  0
  8 25  2  0  0  0  0
  9 23  1  0  0  0  0
  9 26  1  0  0  0  0
  9 41  1  0  0  0  0
 10 23  2  0  0  0  0
 10 25  1  0  0  0  0
 11 12  1  0  0  0  0
 11 13  1  0  0  0  0
 11 14  1  0  0  0  0
 12 27  1  0  0  0  0
 12 28  1  0  0  0  0
 13 29  1  0  0  0  0
 13 30  1  0  0  0  0
 14 18  1  0  0  0  0
 14 31  1  0  0  0  0
 14 32  1  0  0  0  0
 15 20  1  0  0  0  0
 15 33  1  0  0  0  0
 15 34  1  0  0  0  0
 16 17  2  0  0  0  0
 16 35  1  0  0  0  0
 17 19  1  0  0  0  0
 17 21  1  0  0  0  0
 19 36  1  0  0  0  0
 20 37  1  0  0  0  0
 20 38  1  0  0  0  0
 20 39  1  0  0  0  0
 21 22  2  0  0  0  0
 22 23  1  0  0  0  0
 22 24  1  0  0  0  0
 24 26  2  0  0  0  0
 24 40  1  0  0  0  0
 25 43  1  0  0  0  0
 26 42  1  0  0  0  0
M  END
> <PUBCHEM_COMPOUND_CID>
44205240

> <PUBCHEM_COMPOUND_CANONICALIZED>
1

> <PUBCHEM_CACTVS_COMPLEXITY>
678

> <PUBCHEM_CACTVS_HBOND_ACCEPTOR>
7

> <PUBCHEM_CACTVS_HBOND_DONOR>
1

> <PUBCHEM_CACTVS_ROTATABLE_BOND>
5

> <PUBCHEM_CACTVS_SUBSKEYS>
AAADceB7sABAAAAAAAAAAAAAAABYAWLAAAAsAAAAAAAAAFgB/gAAHAQYQAAADIjFXwS/sN7JkAKyBzZnZHDShCmxgqAZ2aA4ZJiI6OLA2dGUpAhomALIyC8QAAAOAAAAAAAAAAAAAAAAAAAAAAAAAAAAAA==

> <PUBCHEM_IUPAC_OPENEYE_NAME>
2-[1-ethylsulfonyl-3-[4-(7H-pyrrolo[2,3-d]pyrimidin-4-yl)pyrazol-1-yl]azetidin-3-yl]acetonitrile

> <PUBCHEM_IUPAC_CAS_NAME>
2-[1-ethylsulfonyl-3-[4-(7H-pyrrolo[2,3-d]pyrimidin-4-yl)-1-pyrazolyl]-3-azetidinyl]acetonitrile

> <PUBCHEM_IUPAC_NAME_MARKUP>
2-[1-ethylsulfonyl-3-[4-(7<I>H</I>-pyrrolo[2,3-d]pyrimidin-4-yl)pyrazol-1-yl]azetidin-3-yl]acetonitrile

> <PUBCHEM_IUPAC_NAME>
2-[1-ethylsulfonyl-3-[4-(7H-pyrrolo[2,3-d]pyrimidin-4-yl)pyrazol-1-yl]azetidin-3-yl]acetonitrile

> <PUBCHEM_IUPAC_SYSTEMATIC_NAME>
2-[1-ethylsulfonyl-3-[4-(7H-pyrrolo[2,3-d]pyrimidin-4-yl)pyrazol-1-yl]azetidin-3-yl]ethanenitrile

> <PUBCHEM_IUPAC_TRADITIONAL_NAME>
2-[1-esyl-3-[4-(7H-pyrrolo[2,3-d]pyrimidin-4-yl)pyrazol-1-yl]azetidin-3-yl]acetonitrile

> <PUBCHEM_IUPAC_INCHI>
InChI=1S/C16H17N7O2S/c1-2-26(24,25)22-9-16(10-22,4-5-17)23-8-12(7-21-23)14-13-3-6-18-15(13)20-11-19-14/h3,6-8,11H,2,4,9-10H2,1H3,(H,18,19,20)

> <PUBCHEM_IUPAC_INCHIKEY>
XUZMWHLSFXCVMG-UHFFFAOYSA-N

> <PUBCHEM_XLOGP3_AA>
-0.5

> <PUBCHEM_EXACT_MASS>
371.11644398

> <PUBCHEM_MOLECULAR_FORMULA>
C16H17N7O2S

> <PUBCHEM_MOLECULAR_WEIGHT>
371.4

> <PUBCHEM_OPENEYE_CAN_SMILES>
CCS(=O)(=O)N1CC(C1)(CC#N)N2C=C(C=N2)C3=C4C=CNC4=NC=N3

> <PUBCHEM_OPENEYE_ISO_SMILES>
CCS(=O)(=O)N1CC(C1)(CC#N)N2C=C(C=N2)C3=C4C=CNC4=NC=N3

> <PUBCHEM_CACTVS_TPSA>
129

> <PUBCHEM_MONOISOTOPIC_WEIGHT>
371.11644398

> <PUBCHEM_TOTAL_CHARGE>
0

> <PUBCHEM_HEAVY_ATOM_COUNT>
26

> <PUBCHEM_ATOM_DEF_STEREO_COUNT>
0

> <PUBCHEM_ATOM_UDEF_STEREO_COUNT>
0

> <PUBCHEM_BOND_DEF_STEREO_COUNT>
0

> <PUBCHEM_BOND_UDEF_STEREO_COUNT>
0

> <PUBCHEM_ISOTOPIC_ATOM_COUNT>
0

> <PUBCHEM_COMPONENT_COUNT>
1

> <PUBCHEM_CACTVS_TAUTO_COUNT>
3

> <PUBCHEM_COORDINATE_TYPE>
1
5
255

> <PUBCHEM_BONDANNOTATIONS>
10  23  8
10  25  8
16  17  8
17  19  8
21  22  8
22  23  8
22  24  8
24  26  8
5  16  8
5  6  8
6  19  8
8  21  8
8  25  8
9  23  8
9  26  8

$$$$
145996610
  -OEChem-10162222362D

 42 43  0     1  0  0  0  0  0999 V2000
    5.0298   -1.1648    0.0000 O   0  0  0  0  0  0  0  0  0  0  0  0
    3.1330   -2.9249    0.0000 O   0  0  0  0  0  0  0  0  0  0  0  0
    2.4608   -0.8558    0.0000 O   0  0  0  0  0  0  0  0  0  0  0  0
    6.3031   -2.8204    0.0000 O   0  0  0  0  0  0  0  0  0  0  0  0
    5.9529    0.4229    0.0000 O   0  0  0  0  0  0  0  0  0  0  0  0
    6.4842   -4.5430    0.0000 O   0  0  0  0  0  0  0  0  0  0  0  0
    3.3548    3.9230    0.0000 O   0  0  0  0  0  0  0  0  0  0  0  0
    4.2208    0.4229    0.0000 N   0  0  0  0  0  0  0  0  0  0  0  0
    5.0868    1.9230    0.0000 N   0  0  0  0  0  0  0  0  0  0  0  0
    4.2208    3.4230    0.0000 N   0  0  0  0  0  0  0  0  0  0  0  0
    3.7208   -2.1159    0.0000 C   0  0  1  0  0  0  0  0  0  0  0  0
    3.4118   -1.1648    0.0000 C   0  0  2  0  0  0  0  0  0  0  0  0
    4.7208   -2.1159    0.0000 C   0  0  1  0  0  0  0  0  0  0  0  0
    4.2208   -0.5771    0.0000 C   0  0  1  0  0  0  0  0  0  0  0  0
    5.3086   -2.9249    0.0000 C   0  0  0  0  0  0  0  0  0  0  0  0
    3.3548    0.9229    0.0000 C   0  0  0  0  0  0  0  0  0  0  0  0
    5.0868    0.9229    0.0000 C   0  0  0  0  0  0  0  0  0  0  0  0
    6.8909   -3.6294    0.0000 C   0  0  0  0  0  0  0  0  0  0  0  0
    3.3548    1.9230    0.0000 C   0  0  0  0  0  0  0  0  0  0  0  0
    7.8854   -3.5249    0.0000 C   0  0  0  0  0  0  0  0  0  0  0  0
    4.2208    2.4230    0.0000 C   0  0  0  0  0  0  0  0  0  0  0  0
    8.4732   -4.3339    0.0000 C   0  0  0  0  0  0  0  0  0  0  0  0
    8.2922   -2.6113    0.0000 C   0  0  0  0  0  0  0  0  0  0  0  0
    3.1085   -2.0189    0.0000 H   0  0  0  0  0  0  0  0  0  0  0  0
    2.9734   -1.6032    0.0000 H   0  0  0  0  0  0  0  0  0  0  0  0
    5.3332   -2.0189    0.0000 H   0  0  0  0  0  0  0  0  0  0  0  0
    3.6684   -0.2956    0.0000 H   0  0  0  0  0  0  0  0  0  0  0  0
    4.7514   -3.1967    0.0000 H   0  0  0  0  0  0  0  0  0  0  0  0
    5.4795   -3.5209    0.0000 H   0  0  0  0  0  0  0  0  0  0  0  0
    3.3852   -3.4913    0.0000 H   0  0  0  0  0  0  0  0  0  0  0  0
    2.0000   -1.2707    0.0000 H   0  0  0  0  0  0  0  0  0  0  0  0
    2.8179    0.6129    0.0000 H   0  0  0  0  0  0  0  0  0  0  0  0
    2.8179    2.2330    0.0000 H   0  0  0  0  0  0  0  0  0  0  0  0
    7.5210   -3.0233    0.0000 H   0  0  0  0  0  0  0  0  0  0  0  0
    7.9716   -4.6983    0.0000 H   0  0  0  0  0  0  0  0  0  0  0  0
    8.8376   -4.8355    0.0000 H   0  0  0  0  0  0  0  0  0  0  0  0
    8.9748   -3.9695    0.0000 H   0  0  0  0  0  0  0  0  0  0  0  0
    8.8586   -2.8635    0.0000 H   0  0  0  0  0  0  0  0  0  0  0  0
    8.5444   -2.0449    0.0000 H   0  0  0  0  0  0  0  0  0  0  0  0
    7.7258   -2.3592    0.0000 H   0  0  0  0  0  0  0  0  0  0  0  0
    4.7578    3.7330    0.0000 H   0  0  0  0  0  0  0  0  0  0  0  0
    3.3548    4.5430    0.0000 H   0  0  0  0  0  0  0  0  0  0  0  0
  1 13  1  0  0  0  0
  1 14  1  0  0  0  0
 11  2  1  1  0  0  0
  2 30  1  0  0  0  0
 12  3  1  1  0  0  0
  3 31  1  0  0  0  0
  4 15  1  0  0  0  0
  4 18  1  0  0  0  0
  5 17  2  0  0  0  0
  6 18  2  0  0  0  0
  7 10  1  0  0  0  0
  7 42  1  0  0  0  0
 14  8  1  6  0  0  0
  8 16  1  0  0  0  0
  8 17  1  0  0  0  0
  9 17  1  0  0  0  0
  9 21  2  0  0  0  0
 10 21  1  0  0  0  0
 10 41  1  0  0  0  0
 11 12  1  0  0  0  0
 11 13  1  0  0  0  0
 11 24  1  0  0  0  0
 12 14  1  0  0  0  0
 12 25  1  0  0  0  0
 13 15  1  6  0  0  0
 13 26  1  0  0  0  0
 14 27  1  0  0  0  0
 15 28  1  0  0  0  0
 15 29  1  0  0  0  0
 16 19  2  0  0  0  0
 16 32  1  0  0  0  0
 18 20  1  0  0  0  0
 19 21  1  0  0  0  0
 19 33  1  0  0  0  0
 20 22  1  0  0  0  0
 20 23  1  0  0  0  0
 20 34  1  0  0  0  0
 22 35  1  0  0  0  0
 22 36  1  0  0  0  0
 22 37  1  0  0  0  0
 23 38  1  0  0  0  0
 23 39  1  0  0  0  0
 23 40  1  0  0  0  0
M  END
> <PUBCHEM_COMPOUND_CID>
145996610

> <PUBCHEM_COMPOUND_CANONICALIZED>
1

> <PUBCHEM_CACTVS_COMPLEXITY>
534

> <PUBCHEM_CACTVS_HBOND_ACCEPTOR>
7

> <PUBCHEM_CACTVS_HBOND_DONOR>
4

> <PUBCHEM_CACTVS_ROTATABLE_BOND>
6

> <PUBCHEM_CACTVS_SUBSKEYS>
AAADceBzOAAAAAAAAAAAAAAAAAAAASAAAAAgAAAAAAAAAAAAAAAAHgAUCAAADRThgAYDCANQBgCoACL2fACAAAEAAgAoAAEYABCDEAIAgAAOQAAHFgITAADwMAoAAAAAAAAAAAAAAAAAAAAAAAAAAAAAAA==

> <PUBCHEM_IUPAC_OPENEYE_NAME>
[(2R,3S,4R,5R)-3,4-dihydroxy-5-[4-(hydroxyamino)-2-oxo-pyrimidin-1-yl]tetrahydrofuran-2-yl]methyl 2-methylpropanoate

> <PUBCHEM_IUPAC_CAS_NAME>
2-methylpropanoic acid [(2R,3S,4R,5R)-3,4-dihydroxy-5-[4-(hydroxyamino)-2-oxo-1-pyrimidinyl]-2-oxolanyl]methyl ester

> <PUBCHEM_IUPAC_NAME_MARKUP>
[(2<I>R</I>,3<I>S</I>,4<I>R</I>,5<I>R</I>)-3,4-dihydroxy-5-[4-(hydroxyamino)-2-oxopyrimidin-1-yl]oxolan-2-yl]methyl 2-methylpropanoate

> <PUBCHEM_IUPAC_NAME>
[(2R,3S,4R,5R)-3,4-dihydroxy-5-[4-(hydroxyamino)-2-oxopyrimidin-1-yl]oxolan-2-yl]methyl 2-methylpropanoate

> <PUBCHEM_IUPAC_SYSTEMATIC_NAME>
[(2R,3S,4R,5R)-3,4-bis(oxidanyl)-5-[4-(oxidanylamino)-2-oxidanylidene-pyrimidin-1-yl]oxolan-2-yl]methyl 2-methylpropanoate

> <PUBCHEM_IUPAC_TRADITIONAL_NAME>
2-methylpropionic acid [(2R,3S,4R,5R)-3,4-dihydroxy-5-[4-(hydroxyamino)-2-keto-pyrimidin-1-yl]tetrahydrofuran-2-yl]methyl ester

> <PUBCHEM_IUPAC_INCHI>
InChI=1S/C13H19N3O7/c1-6(2)12(19)22-5-7-9(17)10(18)11(23-7)16-4-3-8(15-21)14-13(16)20/h3-4,6-7,9-11,17-18,21H,5H2,1-2H3,(H,14,15,20)/t7-,9-,10-,11-/m1/s1

> <PUBCHEM_IUPAC_INCHIKEY>
HTNPEHXGEKVIHG-QCNRFFRDSA-N

> <PUBCHEM_XLOGP3>
-0.8

> <PUBCHEM_EXACT_MASS>
329.12229995

> <PUBCHEM_MOLECULAR_FORMULA>
C13H19N3O7

> <PUBCHEM_MOLECULAR_WEIGHT>
329.31

> <PUBCHEM_OPENEYE_CAN_SMILES>
CC(C)C(=O)OCC1C(C(C(O1)N2C=CC(=NC2=O)NO)O)O

> <PUBCHEM_OPENEYE_ISO_SMILES>
CC(C)C(=O)OC[C@@H]1[C@H]([C@H]([C@@H](O1)N2C=CC(=NC2=O)NO)O)O

> <PUBCHEM_CACTVS_TPSA>
141

> <PUBCHEM_MONOISOTOPIC_WEIGHT>
329.12229995

> <PUBCHEM_TOTAL_CHARGE>
0

> <PUBCHEM_HEAVY_ATOM_COUNT>
23

> <PUBCHEM_ATOM_DEF_STEREO_COUNT>
4

> <PUBCHEM_ATOM_UDEF_STEREO_COUNT>
0

> <PUBCHEM_BOND_DEF_STEREO_COUNT>
0

> <PUBCHEM_BOND_UDEF_STEREO_COUNT>
0

> <PUBCHEM_ISOTOPIC_ATOM_COUNT>
0

> <PUBCHEM_COMPONENT_COUNT>
1

> <PUBCHEM_CACTVS_TAUTO_COUNT>
-1

> <PUBCHEM_COORDINATE_TYPE>
1
5
255

> <PUBCHEM_BONDANNOTATIONS>
13  15  6
16  19  8
19  21  8
11  2  5
12  3  5
14  8  6
8  16  8
8  17  8
9  17  8
9  21  8

$$$$
155903259
  -OEChem-10162222352D

 67 69  0     1  0  0  0  0  0999 V2000
    3.0000   -2.7770    0.0000 F   0  0  0  0  0  0  0  0  0  0  0  0
    2.0000   -3.7770    0.0000 F   0  0  0  0  0  0  0  0  0  0  0  0
    3.0000   -4.7770    0.0000 F   0  0  0  0  0  0  0  0  0  0  0  0
    6.3006   -0.0769    0.0000 O   0  0  0  0  0  0  0  0  0  0  0  0
    5.5000   -1.1789    0.0000 O   0  0  0  0  0  0  0  0  0  0  0  0
    4.5000   -4.6430    0.0000 O   0  0  0  0  0  0  0  0  0  0  0  0
    6.2389    2.8248    0.0000 O   0  0  0  0  0  0  0  0  0  0  0  0
    7.0000   -2.0449    0.0000 N   0  0  0  0  0  0  0  0  0  0  0  0
    7.9479    0.4583    0.0000 N   0  0  0  0  0  0  0  0  0  0  0  0
    4.5000   -2.9110    0.0000 N   0  0  0  0  0  0  0  0  0  0  0  0
    7.0479    4.4126    0.0000 N   0  0  0  0  0  0  0  0  0  0  0  0
    5.6826    1.8252    0.0000 N   0  0  0  0  0  0  0  0  0  0  0  0
    8.5388   -1.5449    0.0000 C   0  0  1  0  0  0  0  0  0  0  0  0
    9.4054   -2.0449    0.0000 C   0  0  0  0  0  0  0  0  0  0  0  0
    8.5388   -2.5449    0.0000 C   0  0  1  0  0  0  0  0  0  0  0  0
    7.5878   -1.2359    0.0000 C   0  0  1  0  0  0  0  0  0  0  0  0
    7.5878   -2.8540    0.0000 C   0  0  0  0  0  0  0  0  0  0  0  0
    9.9054   -2.9110    0.0000 C   0  0  0  0  0  0  0  0  0  0  0  0
    9.9054   -1.1789    0.0000 C   0  0  0  0  0  0  0  0  0  0  0  0
    7.2788   -0.2849    0.0000 C   0  0  0  0  0  0  0  0  0  0  0  0
    6.0000   -2.0449    0.0000 C   0  0  0  0  0  0  0  0  0  0  0  0
    5.5000   -2.9110    0.0000 C   0  0  2  0  0  0  0  0  0  0  0  0
    6.0000   -3.7770    0.0000 C   0  0  0  0  0  0  0  0  0  0  0  0
    7.6389    1.4093    0.0000 C   0  0  1  0  0  0  0  0  0  0  0  0
    6.5000   -4.6430    0.0000 C   0  0  0  0  0  0  0  0  0  0  0  0
    5.1340   -4.2770    0.0000 C   0  0  0  0  0  0  0  0  0  0  0  0
    6.8660   -3.2770    0.0000 C   0  0  0  0  0  0  0  0  0  0  0  0
    8.3080    2.1525    0.0000 C   0  0  0  0  0  0  0  0  0  0  0  0
    7.9990    3.1035    0.0000 C   0  0  2  0  0  0  0  0  0  0  0  0
    4.0000   -3.7770    0.0000 C   0  0  0  0  0  0  0  0  0  0  0  0
    6.6607    1.6172    0.0000 C   0  0  0  0  0  0  0  0  0  0  0  0
    8.5868    3.9126    0.0000 C   0  0  0  0  0  0  0  0  0  0  0  0
    7.0479    3.4126    0.0000 C   0  0  0  0  0  0  0  0  0  0  0  0
    3.0000   -3.7770    0.0000 C   0  0  0  0  0  0  0  0  0  0  0  0
    7.9990    4.7216    0.0000 C   0  0  0  0  0  0  0  0  0  0  0  0
    8.8845   -0.7684    0.0000 H   0  0  0  0  0  0  0  0  0  0  0  0
    8.8845   -3.3215    0.0000 H   0  0  0  0  0  0  0  0  0  0  0  0
    6.9754   -1.1389    0.0000 H   0  0  0  0  0  0  0  0  0  0  0  0
    7.0508   -3.1640    0.0000 H   0  0  0  0  0  0  0  0  0  0  0  0
    7.8400   -3.4204    0.0000 H   0  0  0  0  0  0  0  0  0  0  0  0
    9.3684   -3.2210    0.0000 H   0  0  0  0  0  0  0  0  0  0  0  0
   10.2154   -3.4479    0.0000 H   0  0  0  0  0  0  0  0  0  0  0  0
   10.4423   -2.6010    0.0000 H   0  0  0  0  0  0  0  0  0  0  0  0
   10.4423   -1.4889    0.0000 H   0  0  0  0  0  0  0  0  0  0  0  0
   10.2154   -0.6420    0.0000 H   0  0  0  0  0  0  0  0  0  0  0  0
    9.3684   -0.8689    0.0000 H   0  0  0  0  0  0  0  0  0  0  0  0
    5.1900   -2.3740    0.0000 H   0  0  0  0  0  0  0  0  0  0  0  0
    8.5544    0.3294    0.0000 H   0  0  0  0  0  0  0  0  0  0  0  0
    7.2240    0.9486    0.0000 H   0  0  0  0  0  0  0  0  0  0  0  0
    4.1900   -2.3740    0.0000 H   0  0  0  0  0  0  0  0  0  0  0  0
    5.9631   -4.9530    0.0000 H   0  0  0  0  0  0  0  0  0  0  0  0
    6.8100   -5.1800    0.0000 H   0  0  0  0  0  0  0  0  0  0  0  0
    7.0369   -4.3330    0.0000 H   0  0  0  0  0  0  0  0  0  0  0  0
    4.8240   -3.7400    0.0000 H   0  0  0  0  0  0  0  0  0  0  0  0
    4.5970   -4.5870    0.0000 H   0  0  0  0  0  0  0  0  0  0  0  0
    5.4440   -4.8139    0.0000 H   0  0  0  0  0  0  0  0  0  0  0  0
    7.1760   -3.8139    0.0000 H   0  0  0  0  0  0  0  0  0  0  0  0
    7.4030   -2.9670    0.0000 H   0  0  0  0  0  0  0  0  0  0  0  0
    6.5560   -2.7400    0.0000 H   0  0  0  0  0  0  0  0  0  0  0  0
    8.6897    1.6639    0.0000 H   0  0  0  0  0  0  0  0  0  0  0  0
    8.8554    2.4436    0.0000 H   0  0  0  0  0  0  0  0  0  0  0  0
    8.6114    3.0066    0.0000 H   0  0  0  0  0  0  0  0  0  0  0  0
    9.0475    3.4977    0.0000 H   0  0  0  0  0  0  0  0  0  0  0  0
    9.0475    4.3274    0.0000 H   0  0  0  0  0  0  0  0  0  0  0  0
    8.5359    5.0316    0.0000 H   0  0  0  0  0  0  0  0  0  0  0  0
    7.7468    5.2880    0.0000 H   0  0  0  0  0  0  0  0  0  0  0  0
    6.5464    4.7770    0.0000 H   0  0  0  0  0  0  0  0  0  0  0  0
  1 34  1  0  0  0  0
  2 34  1  0  0  0  0
  3 34  1  0  0  0  0
  4 20  2  0  0  0  0
  5 21  2  0  0  0  0
  6 30  2  0  0  0  0
  7 33  2  0  0  0  0
  8 16  1  0  0  0  0
  8 17  1  0  0  0  0
  8 21  1  0  0  0  0
  9 20  1  0  0  0  0
 24  9  1  6  0  0  0
  9 48  1  0  0  0  0
 22 10  1  6  0  0  0
 10 30  1  0  0  0  0
 10 50  1  0  0  0  0
 11 33  1  0  0  0  0
 11 35  1  0  0  0  0
 11 67  1  0  0  0  0
 12 31  3  0  0  0  0
 13 14  1  0  0  0  0
 13 15  1  0  0  0  0
 13 16  1  0  0  0  0
 13 36  1  6  0  0  0
 14 15  1  0  0  0  0
 14 18  1  0  0  0  0
 14 19  1  0  0  0  0
 15 17  1  0  0  0  0
 15 37  1  6  0  0  0
 16 20  1  6  0  0  0
 16 38  1  0  0  0  0
 17 39  1  0  0  0  0
 17 40  1  0  0  0  0
 18 41  1  0  0  0  0
 18 42  1  0  0  0  0
 18 43  1  0  0  0  0
 19 44  1  0  0  0  0
 19 45  1  0  0  0  0
 19 46  1  0  0  0  0
 21 22  1  0  0  0  0
 22 23  1  0  0  0  0
 22 47  1  0  0  0  0
 23 25  1  0  0  0  0
 23 26  1  0  0  0  0
 23 27  1  0  0  0  0
 24 28  1  0  0  0  0
 24 31  1  0  0  0  0
 24 49  1  0  0  0  0
 25 51  1  0  0  0  0
 25 52  1  0  0  0  0
 25 53  1  0  0  0  0
 26 54  1  0  0  0  0
 26 55  1  0  0  0  0
 26 56  1  0  0  0  0
 27 57  1  0  0  0  0
 27 58  1  0  0  0  0
 27 59  1  0  0  0  0
 29 28  1  1  0  0  0
 28 60  1  0  0  0  0
 28 61  1  0  0  0  0
 29 32  1  0  0  0  0
 29 33  1  0  0  0  0
 29 62  1  0  0  0  0
 30 34  1  0  0  0  0
 32 35  1  0  0  0  0
 32 63  1  0  0  0  0
 32 64  1  0  0  0  0
 35 65  1  0  0  0  0
 35 66  1  0  0  0  0
M  END
> <PUBCHEM_COMPOUND_CID>
155903259

> <PUBCHEM_COMPOUND_CANONICALIZED>
1

> <PUBCHEM_CACTVS_COMPLEXITY>
964

> <PUBCHEM_CACTVS_HBOND_ACCEPTOR>
8

> <PUBCHEM_CACTVS_HBOND_DONOR>
3

> <PUBCHEM_CACTVS_ROTATABLE_BOND>
7

> <PUBCHEM_CACTVS_SUBSKEYS>
AAADcfB7uYAAAAAAAAAAAAAAGAAAAWLAAAAsAAAAAAAAAAAAAAAAHwAQAAAADyjBgBQCAAPAAAAYBAEQEAAAAAAAAAAAAIGIAAAAwBIAgCAUAAAAFgCAAAkcCQAPgAAAAAAAAAAAAAAAAAAAAAAAAAAAAA==

> <PUBCHEM_IUPAC_OPENEYE_NAME>
(1R,2S,5S)-N-[(1S)-1-cyano-2-[(3S)-2-oxopyrrolidin-3-yl]ethyl]-3-[(2S)-3,3-dimethyl-2-[(2,2,2-trifluoroacetyl)amino]butanoyl]-6,6-dimethyl-3-azabicyclo[3.1.0]hexane-2-carboxamide

> <PUBCHEM_IUPAC_CAS_NAME>
(1R,2S,5S)-N-[(1S)-1-cyano-2-[(3S)-2-oxo-3-pyrrolidinyl]ethyl]-3-[(2S)-3,3-dimethyl-1-oxo-2-[(2,2,2-trifluoro-1-oxoethyl)amino]butyl]-6,6-dimethyl-3-azabicyclo[3.1.0]hexane-2-carboxamide

> <PUBCHEM_IUPAC_NAME_MARKUP>
(1<I>R</I>,2<I>S</I>,5<I>S</I>)-<I>N</I>-[(1<I>S</I>)-1-cyano-2-[(3<I>S</I>)-2-oxopyrrolidin-3-yl]ethyl]-3-[(2<I>S</I>)-3,3-dimethyl-2-[(2,2,2-trifluoroacetyl)amino]butanoyl]-6,6-dimethyl-3-azabicyclo[3.1.0]hexane-2-carboxamide

> <PUBCHEM_IUPAC_NAME>
(1R,2S,5S)-N-[(1S)-1-cyano-2-[(3S)-2-oxopyrrolidin-3-yl]ethyl]-3-[(2S)-3,3-dimethyl-2-[(2,2,2-trifluoroacetyl)amino]butanoyl]-6,6-dimethyl-3-azabicyclo[3.1.0]hexane-2-carboxamide

> <PUBCHEM_IUPAC_SYSTEMATIC_NAME>
(1R,2S,5S)-N-[(1S)-1-cyano-2-[(3S)-2-oxidanylidenepyrrolidin-3-yl]ethyl]-3-[(2S)-3,3-dimethyl-2-[2,2,2-tris(fluoranyl)ethanoylamino]butanoyl]-6,6-dimethyl-3-azabicyclo[3.1.0]hexane-2-carboxamide

> <PUBCHEM_IUPAC_TRADITIONAL_NAME>
(1R,2S,5S)-N-[(1S)-1-cyano-2-[(3S)-2-ketopyrrolidin-3-yl]ethyl]-3-[(2S)-3,3-dimethyl-2-[(2,2,2-trifluoroacetyl)amino]butanoyl]-6,6-dimethyl-3-azabicyclo[3.1.0]hexane-2-carboxamide

> <PUBCHEM_IUPAC_INCHI>
InChI=1S/C23H32F3N5O4/c1-21(2,3)16(30-20(35)23(24,25)26)19(34)31-10-13-14(22(13,4)5)15(31)18(33)29-12(9-27)8-11-6-7-28-17(11)32/h11-16H,6-8,10H2,1-5H3,(H,28,32)(H,29,33)(H,30,35)/t11-,12-,13-,14-,15-,16+/m0/s1

> <PUBCHEM_IUPAC_INCHIKEY>
LIENCHBZNNMNKG-OJFNHCPVSA-N

> <PUBCHEM_XLOGP3_AA>
2.2

> <PUBCHEM_EXACT_MASS>
499.24063901

> <PUBCHEM_MOLECULAR_FORMULA>
C23H32F3N5O4

> <PUBCHEM_MOLECULAR_WEIGHT>
499.5

> <PUBCHEM_OPENEYE_CAN_SMILES>
CC1(C2C1C(N(C2)C(=O)C(C(C)(C)C)NC(=O)C(F)(F)F)C(=O)NC(CC3CCNC3=O)C#N)C

> <PUBCHEM_OPENEYE_ISO_SMILES>
CC1([C@@H]2[C@H]1[C@H](N(C2)C(=O)[C@H](C(C)(C)C)NC(=O)C(F)(F)F)C(=O)N[C@@H](C[C@@H]3CCNC3=O)C#N)C

> <PUBCHEM_CACTVS_TPSA>
131

> <PUBCHEM_MONOISOTOPIC_WEIGHT>
499.24063901

> <PUBCHEM_TOTAL_CHARGE>
0

> <PUBCHEM_HEAVY_ATOM_COUNT>
35

> <PUBCHEM_ATOM_DEF_STEREO_COUNT>
6

> <PUBCHEM_ATOM_UDEF_STEREO_COUNT>
0

> <PUBCHEM_BOND_DEF_STEREO_COUNT>
0

> <PUBCHEM_BOND_UDEF_STEREO_COUNT>
0

> <PUBCHEM_ISOTOPIC_ATOM_COUNT>
0

> <PUBCHEM_COMPONENT_COUNT>
1

> <PUBCHEM_CACTVS_TAUTO_COUNT>
-1

> <PUBCHEM_COORDINATE_TYPE>
1
5
255

> <PUBCHEM_BONDANNOTATIONS>
22  10  6
13  36  6
15  37  6
16  20  6
29  28  5
24  9  6

$$$$
121304016
  -OEChem-10162222362D

 77 80  0     1  0  0  0  0  0999 V2000
    6.5916   -0.5056    0.0000 P   0  0  1  0  0  0  0  0  0  0  0  0
    5.5781    2.4117    0.0000 O   0  0  0  0  0  0  0  0  0  0  0  0
    3.2284    3.4954    0.0000 O   0  0  0  0  0  0  0  0  0  0  0  0
    3.2321    1.3198    0.0000 O   0  0  0  0  0  0  0  0  0  0  0  0
    6.2809    0.4449    0.0000 O   0  0  0  0  0  0  0  0  0  0  0  0
    7.5421   -0.1950    0.0000 O   0  0  0  0  0  0  0  0  0  0  0  0
    5.6410   -0.8163    0.0000 O   0  0  0  0  0  0  0  0  0  0  0  0
    5.8772   -3.8953    0.0000 O   0  0  0  0  0  0  0  0  0  0  0  0
    7.5236   -3.3572    0.0000 O   0  0  0  0  0  0  0  0  0  0  0  0
    3.7320    4.4749    0.0000 N   0  0  0  0  0  0  0  0  0  0  0  0
    2.8660    3.9749    0.0000 N   0  0  0  0  0  0  0  0  0  0  0  0
    6.9022   -1.4562    0.0000 N   0  0  0  0  0  0  0  0  0  0  0  0
    6.6049    4.3980    0.0000 N   0  0  0  0  0  0  0  0  0  0  0  0
    2.0000    5.4749    0.0000 N   0  0  0  0  0  0  0  0  0  0  0  0
    2.8660    6.9749    0.0000 N   0  0  0  0  0  0  0  0  0  0  0  0
    4.9889    3.2197    0.0000 C   0  0  2  0  0  0  0  0  0  0  0  0
    4.0384    2.9090    0.0000 C   0  0  1  0  0  0  0  0  0  0  0  0
    4.0401    1.9090    0.0000 C   0  0  1  0  0  0  0  0  0  0  0  0
    4.9917    1.6016    0.0000 C   0  0  1  0  0  0  0  0  0  0  0  0
    4.6783    4.1702    0.0000 C   0  0  0  0  0  0  0  0  0  0  0  0
    5.3024    0.6511    0.0000 C   0  0  0  0  0  0  0  0  0  0  0  0
    5.7969    3.8088    0.0000 C   0  0  0  0  0  0  0  0  0  0  0  0
    5.2619    4.9749    0.0000 C   0  0  0  0  0  0  0  0  0  0  0  0
    3.7320    5.4749    0.0000 C   0  0  0  0  0  0  0  0  0  0  0  0
    4.6783    5.7796    0.0000 C   0  0  0  0  0  0  0  0  0  0  0  0
    2.8660    5.9749    0.0000 C   0  0  0  0  0  0  0  0  0  0  0  0
    6.2344   -2.2004    0.0000 C   0  0  2  0  0  0  0  0  0  0  0  0
    2.0000    4.4749    0.0000 C   0  0  0  0  0  0  0  0  0  0  0  0
    5.5200   -5.5901    0.0000 C   0  0  0  0  0  0  0  0  0  0  0  0
    6.1879   -4.8458    0.0000 C   0  0  0  0  0  0  0  0  0  0  0  0
    5.8307   -6.5406    0.0000 C   0  0  0  0  0  0  0  0  0  0  0  0
    4.5415   -5.3839    0.0000 C   0  0  0  0  0  0  0  0  0  0  0  0
    6.5450   -3.1510    0.0000 C   0  0  0  0  0  0  0  0  0  0  0  0
    5.2559   -1.9942    0.0000 C   0  0  0  0  0  0  0  0  0  0  0  0
    8.2864   -0.8628    0.0000 C   0  0  0  0  0  0  0  0  0  0  0  0
    5.1628   -7.2849    0.0000 C   0  0  0  0  0  0  0  0  0  0  0  0
    3.8737   -6.1282    0.0000 C   0  0  0  0  0  0  0  0  0  0  0  0
    9.2369   -0.5521    0.0000 C   0  0  0  0  0  0  0  0  0  0  0  0
    8.0802   -1.8413    0.0000 C   0  0  0  0  0  0  0  0  0  0  0  0
    9.9812   -1.2200    0.0000 C   0  0  0  0  0  0  0  0  0  0  0  0
    8.8245   -2.5092    0.0000 C   0  0  0  0  0  0  0  0  0  0  0  0
    9.7750   -2.1985    0.0000 C   0  0  0  0  0  0  0  0  0  0  0  0
    4.1343    3.5215    0.0000 H   0  0  0  0  0  0  0  0  0  0  0  0
    3.4872    2.1895    0.0000 H   0  0  0  0  0  0  0  0  0  0  0  0
    5.6043    1.5057    0.0000 H   0  0  0  0  0  0  0  0  0  0  0  0
    4.6886    0.5638    0.0000 H   0  0  0  0  0  0  0  0  0  0  0  0
    5.2818    0.0315    0.0000 H   0  0  0  0  0  0  0  0  0  0  0  0
    2.6624    3.2422    0.0000 H   0  0  0  0  0  0  0  0  0  0  0  0
    5.8819    4.9749    0.0000 H   0  0  0  0  0  0  0  0  0  0  0  0
    3.2980    0.7033    0.0000 H   0  0  0  0  0  0  0  0  0  0  0  0
    4.8709    6.3690    0.0000 H   0  0  0  0  0  0  0  0  0  0  0  0
    7.5089   -1.5840    0.0000 H   0  0  0  0  0  0  0  0  0  0  0  0
    6.8411   -2.3283    0.0000 H   0  0  0  0  0  0  0  0  0  0  0  0
    5.3274   -5.0008    0.0000 H   0  0  0  0  0  0  0  0  0  0  0  0
    1.4631    4.1649    0.0000 H   0  0  0  0  0  0  0  0  0  0  0  0
    6.5704   -5.3337    0.0000 H   0  0  0  0  0  0  0  0  0  0  0  0
    6.7348   -4.5538    0.0000 H   0  0  0  0  0  0  0  0  0  0  0  0
    6.2132   -7.0285    0.0000 H   0  0  0  0  0  0  0  0  0  0  0  0
    6.3776   -6.2486    0.0000 H   0  0  0  0  0  0  0  0  0  0  0  0
    4.7728   -4.8086    0.0000 H   0  0  0  0  0  0  0  0  0  0  0  0
    4.0152   -5.0562    0.0000 H   0  0  0  0  0  0  0  0  0  0  0  0
    2.3291    7.2849    0.0000 H   0  0  0  0  0  0  0  0  0  0  0  0
    3.4030    7.2849    0.0000 H   0  0  0  0  0  0  0  0  0  0  0  0
    5.3837   -1.3876    0.0000 H   0  0  0  0  0  0  0  0  0  0  0  0
    4.6492   -1.8664    0.0000 H   0  0  0  0  0  0  0  0  0  0  0  0
    5.1280   -2.6009    0.0000 H   0  0  0  0  0  0  0  0  0  0  0  0
    4.7014   -6.8708    0.0000 H   0  0  0  0  0  0  0  0  0  0  0  0
    4.7488   -7.7464    0.0000 H   0  0  0  0  0  0  0  0  0  0  0  0
    5.6243   -7.6990    0.0000 H   0  0  0  0  0  0  0  0  0  0  0  0
    3.4122   -5.7141    0.0000 H   0  0  0  0  0  0  0  0  0  0  0  0
    3.4596   -6.5896    0.0000 H   0  0  0  0  0  0  0  0  0  0  0  0
    4.3351   -6.5422    0.0000 H   0  0  0  0  0  0  0  0  0  0  0  0
    9.3648    0.0545    0.0000 H   0  0  0  0  0  0  0  0  0  0  0  0
    7.4908   -2.0339    0.0000 H   0  0  0  0  0  0  0  0  0  0  0  0
   10.5705   -1.0274    0.0000 H   0  0  0  0  0  0  0  0  0  0  0  0
    8.6966   -3.1158    0.0000 H   0  0  0  0  0  0  0  0  0  0  0  0
   10.2365   -2.6126    0.0000 H   0  0  0  0  0  0  0  0  0  0  0  0
  1  5  1  6  0  0  0
  1  6  1  0  0  0  0
  1  7  2  0  0  0  0
  1 12  1  0  0  0  0
  2 16  1  0  0  0  0
  2 19  1  0  0  0  0
 17  3  1  1  0  0  0
  3 48  1  0  0  0  0
 18  4  1  1  0  0  0
  4 50  1  0  0  0  0
  5 21  1  0  0  0  0
  6 35  1  0  0  0  0
  8 30  1  0  0  0  0
  8 33  1  0  0  0  0
  9 33  2  0  0  0  0
 10 11  1  0  0  0  0
 10 20  1  0  0  0  0
 10 24  1  0  0  0  0
 11 28  2  0  0  0  0
 27 12  1  6  0  0  0
 12 52  1  0  0  0  0
 13 22  3  0  0  0  0
 14 26  2  0  0  0  0
 14 28  1  0  0  0  0
 15 26  1  0  0  0  0
 15 62  1  0  0  0  0
 15 63  1  0  0  0  0
 16 17  1  0  0  0  0
 16 20  1  0  0  0  0
 16 22  1  1  0  0  0
 17 18  1  0  0  0  0
 17 43  1  0  0  0  0
 18 19  1  0  0  0  0
 18 44  1  0  0  0  0
 19 21  1  6  0  0  0
 19 45  1  0  0  0  0
 20 23  2  0  0  0  0
 21 46  1  0  0  0  0
 21 47  1  0  0  0  0
 23 25  1  0  0  0  0
 23 49  1  0  0  0  0
 24 25  2  0  0  0  0
 24 26  1  0  0  0  0
 25 51  1  0  0  0  0
 27 33  1  0  0  0  0
 27 34  1  0  0  0  0
 27 53  1  0  0  0  0
 28 55  1  0  0  0  0
 29 30  1  0  0  0  0
 29 31  1  0  0  0  0
 29 32  1  0  0  0  0
 29 54  1  0  0  0  0
 30 56  1  0  0  0  0
 30 57  1  0  0  0  0
 31 36  1  0  0  0  0
 31 58  1  0  0  0  0
 31 59  1  0  0  0  0
 32 37  1  0  0  0  0
 32 60  1  0  0  0  0
 32 61  1  0  0  0  0
 34 64  1  0  0  0  0
 34 65  1  0  0  0  0
 34 66  1  0  0  0  0
 35 38  2  0  0  0  0
 35 39  1  0  0  0  0
 36 67  1  0  0  0  0
 36 68  1  0  0  0  0
 36 69  1  0  0  0  0
 37 70  1  0  0  0  0
 37 71  1  0  0  0  0
 37 72  1  0  0  0  0
 38 40  1  0  0  0  0
 38 73  1  0  0  0  0
 39 41  2  0  0  0  0
 39 74  1  0  0  0  0
 40 42  2  0  0  0  0
 40 75  1  0  0  0  0
 41 42  1  0  0  0  0
 41 76  1  0  0  0  0
 42 77  1  0  0  0  0
M  END
> <PUBCHEM_COMPOUND_CID>
121304016

> <PUBCHEM_COMPOUND_CANONICALIZED>
1

> <PUBCHEM_CACTVS_COMPLEXITY>
1010

> <PUBCHEM_CACTVS_HBOND_ACCEPTOR>
13

> <PUBCHEM_CACTVS_HBOND_DONOR>
4

> <PUBCHEM_CACTVS_ROTATABLE_BOND>
14

> <PUBCHEM_CACTVS_SUBSKEYS>
AAADcfB7vAIAAAAAAAAAAAAAAAAAAWJAAAA8QAAAAAAAAFgB8AAAHgAYiCAADXzhlgY3/rZIFxC6RSbzbISShC8xsqAd2KG+fJiL/uLAuZuX8Ahn2BPb6C/w8PcOAAAAAAAAAAAAAAAAAAAAAAAAAAAAAA==

> <PUBCHEM_IUPAC_OPENEYE_NAME>
2-ethylbutyl (2S)-2-[[[(2R,3S,4R,5R)-5-(4-aminopyrrolo[2,1-f][1,2,4]triazin-7-yl)-5-cyano-3,4-dihydroxy-tetrahydrofuran-2-yl]methoxy-phenoxy-phosphoryl]amino]propanoate

> <PUBCHEM_IUPAC_CAS_NAME>
(2S)-2-[[[(2R,3S,4R,5R)-5-(4-amino-7-pyrrolo[2,1-f][1,2,4]triazinyl)-5-cyano-3,4-dihydroxy-2-oxolanyl]methoxy-phenoxyphosphoryl]amino]propanoic acid 2-ethylbutyl ester

> <PUBCHEM_IUPAC_NAME_MARKUP>
2-ethylbutyl (2<I>S</I>)-2-[[[(2<I>R</I>,3<I>S</I>,4<I>R</I>,5<I>R</I>)-5-(4-aminopyrrolo[2,1-f][1,2,4]triazin-7-yl)-5-cyano-3,4-dihydroxyoxolan-2-yl]methoxy-phenoxyphosphoryl]amino]propanoate

> <PUBCHEM_IUPAC_NAME>
2-ethylbutyl (2S)-2-[[[(2R,3S,4R,5R)-5-(4-aminopyrrolo[2,1-f][1,2,4]triazin-7-yl)-5-cyano-3,4-dihydroxyoxolan-2-yl]methoxy-phenoxyphosphoryl]amino]propanoate

> <PUBCHEM_IUPAC_SYSTEMATIC_NAME>
2-ethylbutyl (2S)-2-[[[(2R,3S,4R,5R)-5-(4-azanylpyrrolo[2,1-f][1,2,4]triazin-7-yl)-5-cyano-3,4-bis(oxidanyl)oxolan-2-yl]methoxy-phenoxy-phosphoryl]amino]propanoate

> <PUBCHEM_IUPAC_TRADITIONAL_NAME>
(2S)-2-[[[(2R,3S,4R,5R)-5-(4-aminopyrrolo[2,1-f][1,2,4]triazin-7-yl)-5-cyano-3,4-dihydroxy-tetrahydrofuran-2-yl]methoxy-phenoxy-phosphoryl]amino]propionic acid 2-ethylbutyl ester

> <PUBCHEM_IUPAC_INCHI>
InChI=1S/C27H35N6O8P/c1-4-18(5-2)13-38-26(36)17(3)32-42(37,41-19-9-7-6-8-10-19)39-14-21-23(34)24(35)27(15-28,40-21)22-12-11-20-25(29)30-16-31-33(20)22/h6-12,16-18,21,23-24,34-35H,4-5,13-14H2,1-3H3,(H,32,37)(H2,29,30,31)/t17-,21+,23+,24+,27-,42-/m0/s1

> <PUBCHEM_IUPAC_INCHIKEY>
RWWYLEGWBNMMLJ-YSOARWBDSA-N

> <PUBCHEM_XLOGP3_AA>
1.9

> <PUBCHEM_EXACT_MASS>
602.22539909

> <PUBCHEM_MOLECULAR_FORMULA>
C27H35N6O8P

> <PUBCHEM_MOLECULAR_WEIGHT>
602.6

> <PUBCHEM_OPENEYE_CAN_SMILES>
CCC(CC)COC(=O)C(C)NP(=O)(OCC1C(C(C(O1)(C#N)C2=CC=C3N2N=CN=C3N)O)O)OC4=CC=CC=C4

> <PUBCHEM_OPENEYE_ISO_SMILES>
CCC(CC)COC(=O)[C@H](C)N[P@](=O)(OC[C@@H]1[C@H]([C@H]([C@](O1)(C#N)C2=CC=C3N2N=CN=C3N)O)O)OC4=CC=CC=C4

> <PUBCHEM_CACTVS_TPSA>
204

> <PUBCHEM_MONOISOTOPIC_WEIGHT>
602.22539909

> <PUBCHEM_TOTAL_CHARGE>
0

> <PUBCHEM_HEAVY_ATOM_COUNT>
42

> <PUBCHEM_ATOM_DEF_STEREO_COUNT>
6

> <PUBCHEM_ATOM_UDEF_STEREO_COUNT>
0

> <PUBCHEM_BOND_DEF_STEREO_COUNT>
0

> <PUBCHEM_BOND_UDEF_STEREO_COUNT>
0

> <PUBCHEM_ISOTOPIC_ATOM_COUNT>
0

> <PUBCHEM_COMPONENT_COUNT>
1

> <PUBCHEM_CACTVS_TAUTO_COUNT>
6

> <PUBCHEM_COORDINATE_TYPE>
1
5
255

> <PUBCHEM_BONDANNOTATIONS>
1  5  6
10  11  8
10  20  8
10  24  8
11  28  8
27  12  6
14  26  8
14  28  8
16  22  5
19  21  6
20  23  8
23  25  8
24  25  8
24  26  8
17  3  5
35  38  8
35  39  8
38  40  8
39  41  8
18  4  5
40  42  8
41  42  8

$$$$
392622
  -OEChem-10162222162D

 98101  0     1  0  0  0  0  0999 V2000
   12.6090    0.0476    0.0000 S   0  0  0  0  0  0  0  0  0  0  0  0
    8.9757   -1.3433    0.0000 S   0  0  0  0  0  0  0  0  0  0  0  0
    2.8660    0.2500    0.0000 O   0  0  0  0  0  0  0  0  0  0  0  0
    6.3301    0.2500    0.0000 O   0  0  0  0  0  0  0  0  0  0  0  0
    6.3301   -1.7500    0.0000 O   0  0  0  0  0  0  0  0  0  0  0  0
    5.4641   -0.2500    0.0000 O   0  0  0  0  0  0  0  0  0  0  0  0
    8.9282    2.7500    0.0000 O   0  0  0  0  0  0  0  0  0  0  0  0
    5.4641    1.7500    0.0000 N   0  0  0  0  0  0  0  0  0  0  0  0
    4.5981   -1.7500    0.0000 N   0  0  0  0  0  0  0  0  0  0  0  0
    8.0622    1.2500    0.0000 N   0  0  0  0  0  0  0  0  0  0  0  0
    9.7942    1.2500    0.0000 N   0  0  0  0  0  0  0  0  0  0  0  0
   12.4398    1.6567    0.0000 N   0  0  0  0  0  0  0  0  0  0  0  0
    9.1448   -2.9524    0.0000 N   0  0  0  0  0  0  0  0  0  0  0  0
    4.5981    1.2500    0.0000 C   0  0  2  0  0  0  0  0  0  0  0  0
    4.5981    0.2500    0.0000 C   0  0  0  0  0  0  0  0  0  0  0  0
    3.7320   -0.2500    0.0000 C   0  0  1  0  0  0  0  0  0  0  0  0
    3.7320   -1.2500    0.0000 C   0  0  2  0  0  0  0  0  0  0  0  0
    3.7320    1.7500    0.0000 C   0  0  0  0  0  0  0  0  0  0  0  0
    2.8660   -1.7500    0.0000 C   0  0  0  0  0  0  0  0  0  0  0  0
    7.1962    1.7500    0.0000 C   0  0  1  0  0  0  0  0  0  0  0  0
    7.1962    2.7500    0.0000 C   0  0  0  0  0  0  0  0  0  0  0  0
    6.3301    1.2500    0.0000 C   0  0  0  0  0  0  0  0  0  0  0  0
    3.7320    2.7500    0.0000 C   0  0  0  0  0  0  0  0  0  0  0  0
    2.8660   -2.7500    0.0000 C   0  0  0  0  0  0  0  0  0  0  0  0
    8.0622    3.2500    0.0000 C   0  0  0  0  0  0  0  0  0  0  0  0
    6.3301    3.2500    0.0000 C   0  0  0  0  0  0  0  0  0  0  0  0
    2.8660    3.2500    0.0000 C   0  0  0  0  0  0  0  0  0  0  0  0
    4.5981    3.2500    0.0000 C   0  0  0  0  0  0  0  0  0  0  0  0
    5.4641   -1.2500    0.0000 C   0  0  0  0  0  0  0  0  0  0  0  0
    3.7320   -3.2500    0.0000 C   0  0  0  0  0  0  0  0  0  0  0  0
    2.0000   -3.2500    0.0000 C   0  0  0  0  0  0  0  0  0  0  0  0
    8.9282    1.7500    0.0000 C   0  0  0  0  0  0  0  0  0  0  0  0
    2.8660    4.2500    0.0000 C   0  0  0  0  0  0  0  0  0  0  0  0
    4.5981    4.2500    0.0000 C   0  0  0  0  0  0  0  0  0  0  0  0
    3.7320   -4.2500    0.0000 C   0  0  0  0  0  0  0  0  0  0  0  0
    2.0000   -4.2500    0.0000 C   0  0  0  0  0  0  0  0  0  0  0  0
    3.7320    4.7500    0.0000 C   0  0  0  0  0  0  0  0  0  0  0  0
    2.8660   -4.7500    0.0000 C   0  0  0  0  0  0  0  0  0  0  0  0
   10.6603    1.7500    0.0000 C   0  0  0  0  0  0  0  0  0  0  0  0
    9.7942    0.2500    0.0000 C   0  0  0  0  0  0  0  0  0  0  0  0
    7.1962   -1.2500    0.0000 C   0  0  0  0  0  0  0  0  0  0  0  0
   11.5263    1.2500    0.0000 C   0  0  0  0  0  0  0  0  0  0  0  0
    8.0622   -1.7500    0.0000 C   0  0  0  0  0  0  0  0  0  0  0  0
   13.1090    0.9136    0.0000 C   0  0  0  0  0  0  0  0  0  0  0  0
   11.6308    0.2555    0.0000 C   0  0  0  0  0  0  0  0  0  0  0  0
   14.1035    1.0181    0.0000 C   0  0  0  0  0  0  0  0  0  0  0  0
   14.6913    0.2091    0.0000 C   0  0  0  0  0  0  0  0  0  0  0  0
   14.5102    1.9317    0.0000 C   0  0  0  0  0  0  0  0  0  0  0  0
    8.1667   -2.7445    0.0000 C   0  0  0  0  0  0  0  0  0  0  0  0
    9.6448   -2.0864    0.0000 C   0  0  0  0  0  0  0  0  0  0  0  0
    4.5981    1.8700    0.0000 H   0  0  0  0  0  0  0  0  0  0  0  0
    4.8101   -0.3326    0.0000 H   0  0  0  0  0  0  0  0  0  0  0  0
    5.2087    0.3577    0.0000 H   0  0  0  0  0  0  0  0  0  0  0  0
    3.7320    0.3700    0.0000 H   0  0  0  0  0  0  0  0  0  0  0  0
    3.7320   -1.8700    0.0000 H   0  0  0  0  0  0  0  0  0  0  0  0
    3.1215    1.8577    0.0000 H   0  0  0  0  0  0  0  0  0  0  0  0
    3.5200    1.1674    0.0000 H   0  0  0  0  0  0  0  0  0  0  0  0
    2.6540   -1.1674    0.0000 H   0  0  0  0  0  0  0  0  0  0  0  0
    2.2554   -1.8577    0.0000 H   0  0  0  0  0  0  0  0  0  0  0  0
    5.4641    2.3700    0.0000 H   0  0  0  0  0  0  0  0  0  0  0  0
    7.7331    2.0600    0.0000 H   0  0  0  0  0  0  0  0  0  0  0  0
    6.6592    2.4400    0.0000 H   0  0  0  0  0  0  0  0  0  0  0  0
    4.5981   -2.3700    0.0000 H   0  0  0  0  0  0  0  0  0  0  0  0
    2.8660    0.8700    0.0000 H   0  0  0  0  0  0  0  0  0  0  0  0
    8.0622    0.6300    0.0000 H   0  0  0  0  0  0  0  0  0  0  0  0
    8.3722    2.7131    0.0000 H   0  0  0  0  0  0  0  0  0  0  0  0
    8.5991    3.5600    0.0000 H   0  0  0  0  0  0  0  0  0  0  0  0
    7.7522    3.7869    0.0000 H   0  0  0  0  0  0  0  0  0  0  0  0
    6.6401    3.7869    0.0000 H   0  0  0  0  0  0  0  0  0  0  0  0
    5.7932    3.5600    0.0000 H   0  0  0  0  0  0  0  0  0  0  0  0
    6.0201    2.7131    0.0000 H   0  0  0  0  0  0  0  0  0  0  0  0
    2.3291    2.9400    0.0000 H   0  0  0  0  0  0  0  0  0  0  0  0
    5.1350    2.9400    0.0000 H   0  0  0  0  0  0  0  0  0  0  0  0
    4.2690   -2.9400    0.0000 H   0  0  0  0  0  0  0  0  0  0  0  0
    1.4631   -2.9400    0.0000 H   0  0  0  0  0  0  0  0  0  0  0  0
    2.3291    4.5600    0.0000 H   0  0  0  0  0  0  0  0  0  0  0  0
    5.1350    4.5600    0.0000 H   0  0  0  0  0  0  0  0  0  0  0  0
    4.2690   -4.5600    0.0000 H   0  0  0  0  0  0  0  0  0  0  0  0
    1.4631   -4.5600    0.0000 H   0  0  0  0  0  0  0  0  0  0  0  0
    3.7320    5.3700    0.0000 H   0  0  0  0  0  0  0  0  0  0  0  0
    2.8660   -5.3700    0.0000 H   0  0  0  0  0  0  0  0  0  0  0  0
   11.0588    2.2250    0.0000 H   0  0  0  0  0  0  0  0  0  0  0  0
   10.2617    2.2250    0.0000 H   0  0  0  0  0  0  0  0  0  0  0  0
    9.1742    0.2500    0.0000 H   0  0  0  0  0  0  0  0  0  0  0  0
    9.7942   -0.3700    0.0000 H   0  0  0  0  0  0  0  0  0  0  0  0
   10.4142    0.2500    0.0000 H   0  0  0  0  0  0  0  0  0  0  0  0
    7.5947   -0.7751    0.0000 H   0  0  0  0  0  0  0  0  0  0  0  0
    6.7976   -0.7751    0.0000 H   0  0  0  0  0  0  0  0  0  0  0  0
   14.7201    1.0829    0.0000 H   0  0  0  0  0  0  0  0  0  0  0  0
   11.1701   -0.1594    0.0000 H   0  0  0  0  0  0  0  0  0  0  0  0
   14.1897   -0.1553    0.0000 H   0  0  0  0  0  0  0  0  0  0  0  0
   15.0557   -0.2925    0.0000 H   0  0  0  0  0  0  0  0  0  0  0  0
   15.1929    0.5735    0.0000 H   0  0  0  0  0  0  0  0  0  0  0  0
   15.0766    1.6795    0.0000 H   0  0  0  0  0  0  0  0  0  0  0  0
   14.7624    2.4981    0.0000 H   0  0  0  0  0  0  0  0  0  0  0  0
   13.9438    2.1838    0.0000 H   0  0  0  0  0  0  0  0  0  0  0  0
    7.7060   -3.1594    0.0000 H   0  0  0  0  0  0  0  0  0  0  0  0
   10.2615   -2.0216    0.0000 H   0  0  0  0  0  0  0  0  0  0  0  0
  1 44  1  0  0  0  0
  1 45  1  0  0  0  0
  2 43  1  0  0  0  0
  2 50  1  0  0  0  0
 16  3  1  1  0  0  0
  3 64  1  0  0  0  0
  4 22  2  0  0  0  0
  5 29  1  0  0  0  0
  5 41  1  0  0  0  0
  6 29  2  0  0  0  0
  7 32  2  0  0  0  0
 14  8  1  6  0  0  0
  8 22  1  0  0  0  0
  8 60  1  0  0  0  0
 17  9  1  1  0  0  0
  9 29  1  0  0  0  0
  9 63  1  0  0  0  0
 20 10  1  6  0  0  0
 10 32  1  0  0  0  0
 10 65  1  0  0  0  0
 11 32  1  0  0  0  0
 11 39  1  0  0  0  0
 11 40  1  0  0  0  0
 12 42  1  0  0  0  0
 12 44  2  0  0  0  0
 13 49  1  0  0  0  0
 13 50  2  0  0  0  0
 14 15  1  0  0  0  0
 14 18  1  0  0  0  0
 14 51  1  0  0  0  0
 15 16  1  0  0  0  0
 15 52  1  0  0  0  0
 15 53  1  0  0  0  0
 16 17  1  0  0  0  0
 16 54  1  0  0  0  0
 17 19  1  0  0  0  0
 17 55  1  0  0  0  0
 18 23  1  0  0  0  0
 18 56  1  0  0  0  0
 18 57  1  0  0  0  0
 19 24  1  0  0  0  0
 19 58  1  0  0  0  0
 19 59  1  0  0  0  0
 20 21  1  0  0  0  0
 20 22  1  0  0  0  0
 20 61  1  0  0  0  0
 21 25  1  0  0  0  0
 21 26  1  0  0  0  0
 21 62  1  0  0  0  0
 23 27  2  0  0  0  0
 23 28  1  0  0  0  0
 24 30  2  0  0  0  0
 24 31  1  0  0  0  0
 25 66  1  0  0  0  0
 25 67  1  0  0  0  0
 25 68  1  0  0  0  0
 26 69  1  0  0  0  0
 26 70  1  0  0  0  0
 26 71  1  0  0  0  0
 27 33  1  0  0  0  0
 27 72  1  0  0  0  0
 28 34  2  0  0  0  0
 28 73  1  0  0  0  0
 30 35  1  0  0  0  0
 30 74  1  0  0  0  0
 31 36  2  0  0  0  0
 31 75  1  0  0  0  0
 33 37  2  0  0  0  0
 33 76  1  0  0  0  0
 34 37  1  0  0  0  0
 34 77  1  0  0  0  0
 35 38  2  0  0  0  0
 35 78  1  0  0  0  0
 36 38  1  0  0  0  0
 36 79  1  0  0  0  0
 37 80  1  0  0  0  0
 38 81  1  0  0  0  0
 39 42  1  0  0  0  0
 39 82  1  0  0  0  0
 39 83  1  0  0  0  0
 40 84  1  0  0  0  0
 40 85  1  0  0  0  0
 40 86  1  0  0  0  0
 41 43  1  0  0  0  0
 41 87  1  0  0  0  0
 41 88  1  0  0  0  0
 42 45  2  0  0  0  0
 43 49  2  0  0  0  0
 44 46  1  0  0  0  0
 45 90  1  0  0  0  0
 46 47  1  0  0  0  0
 46 48  1  0  0  0  0
 46 89  1  0  0  0  0
 47 91  1  0  0  0  0
 47 92  1  0  0  0  0
 47 93  1  0  0  0  0
 48 94  1  0  0  0  0
 48 95  1  0  0  0  0
 48 96  1  0  0  0  0
 49 97  1  0  0  0  0
 50 98  1  0  0  0  0
M  END
> <PUBCHEM_COMPOUND_CID>
392622

> <PUBCHEM_COMPOUND_CANONICALIZED>
1

> <PUBCHEM_CACTVS_COMPLEXITY>
1040

> <PUBCHEM_CACTVS_HBOND_ACCEPTOR>
9

> <PUBCHEM_CACTVS_HBOND_DONOR>
4

> <PUBCHEM_CACTVS_ROTATABLE_BOND>
18

> <PUBCHEM_CACTVS_SUBSKEYS>
AAADcfB/uABgAAAAAAAAAAAAAAAAAWLAAAAwYAAAAAAAAAAB9AAAHgQQCAAADTzl3ga/iZPIFgisAzV3XACC8KBxCjhI2J24bImKdDLgsTmcYAgulgL4qAeQwPAOAAAAAAAAAAAAAAAAAAAAAAAAAAAAAA==

> <PUBCHEM_IUPAC_OPENEYE_NAME>
thiazol-5-ylmethyl N-[(1S,2S,4S)-1-benzyl-2-hydroxy-4-[[(2S)-2-[[(2-isopropylthiazol-4-yl)methyl-methyl-carbamoyl]amino]-3-methyl-butanoyl]amino]-5-phenyl-pentyl]carbamate

> <PUBCHEM_IUPAC_CAS_NAME>
N-[(2S,3S,5S)-3-hydroxy-5-[[(2S)-3-methyl-2-[[[methyl-[(2-propan-2-yl-4-thiazolyl)methyl]amino]-oxomethyl]amino]-1-oxobutyl]amino]-1,6-diphenylhexan-2-yl]carbamic acid 5-thiazolylmethyl ester

> <PUBCHEM_IUPAC_NAME_MARKUP>
1,3-thiazol-5-ylmethyl <I>N</I>-[(2<I>S</I>,3<I>S</I>,5<I>S</I>)-3-hydroxy-5-[[(2<I>S</I>)-3-methyl-2-[[methyl-[(2-propan-2-yl-1,3-thiazol-4-yl)methyl]carbamoyl]amino]butanoyl]amino]-1,6-diphenylhexan-2-yl]carbamate

> <PUBCHEM_IUPAC_NAME>
1,3-thiazol-5-ylmethyl N-[(2S,3S,5S)-3-hydroxy-5-[[(2S)-3-methyl-2-[[methyl-[(2-propan-2-yl-1,3-thiazol-4-yl)methyl]carbamoyl]amino]butanoyl]amino]-1,6-diphenylhexan-2-yl]carbamate

> <PUBCHEM_IUPAC_SYSTEMATIC_NAME>
1,3-thiazol-5-ylmethyl N-[(2S,3S,5S)-5-[[(2S)-3-methyl-2-[[methyl-[(2-propan-2-yl-1,3-thiazol-4-yl)methyl]carbamoyl]amino]butanoyl]amino]-3-oxidanyl-1,6-diphenyl-hexan-2-yl]carbamate

> <PUBCHEM_IUPAC_TRADITIONAL_NAME>
N-[(1S,2S,4S)-1-benzyl-2-hydroxy-4-[[(2S)-2-[[(2-isopropylthiazol-4-yl)methyl-methyl-carbamoyl]amino]-3-methyl-butanoyl]amino]-5-phenyl-pentyl]carbamic acid thiazol-5-ylmethyl ester

> <PUBCHEM_IUPAC_INCHI>
InChI=1S/C37H48N6O5S2/c1-24(2)33(42-36(46)43(5)20-29-22-49-35(40-29)25(3)4)34(45)39-28(16-26-12-8-6-9-13-26)18-32(44)31(17-27-14-10-7-11-15-27)41-37(47)48-21-30-19-38-23-50-30/h6-15,19,22-25,28,31-33,44H,16-18,20-21H2,1-5H3,(H,39,45)(H,41,47)(H,42,46)/t28-,31-,32-,33-/m0/s1

> <PUBCHEM_IUPAC_INCHIKEY>
NCDNCNXCDXHOMX-XGKFQTDJSA-N

> <PUBCHEM_XLOGP3_AA>
6

> <PUBCHEM_EXACT_MASS>
720.31276100

> <PUBCHEM_MOLECULAR_FORMULA>
C37H48N6O5S2

> <PUBCHEM_MOLECULAR_WEIGHT>
720.9

> <PUBCHEM_OPENEYE_CAN_SMILES>
CC(C)C1=NC(=CS1)CN(C)C(=O)NC(C(C)C)C(=O)NC(CC2=CC=CC=C2)CC(C(CC3=CC=CC=C3)NC(=O)OCC4=CN=CS4)O

> <PUBCHEM_OPENEYE_ISO_SMILES>
CC(C)C1=NC(=CS1)CN(C)C(=O)N[C@@H](C(C)C)C(=O)N[C@@H](CC2=CC=CC=C2)C[C@@H]([C@H](CC3=CC=CC=C3)NC(=O)OCC4=CN=CS4)O

> <PUBCHEM_CACTVS_TPSA>
202

> <PUBCHEM_MONOISOTOPIC_WEIGHT>
720.31276100

> <PUBCHEM_TOTAL_CHARGE>
0

> <PUBCHEM_HEAVY_ATOM_COUNT>
50

> <PUBCHEM_ATOM_DEF_STEREO_COUNT>
4

> <PUBCHEM_ATOM_UDEF_STEREO_COUNT>
0

> <PUBCHEM_BOND_DEF_STEREO_COUNT>
0

> <PUBCHEM_BOND_UDEF_STEREO_COUNT>
0

> <PUBCHEM_ISOTOPIC_ATOM_COUNT>
0

> <PUBCHEM_COMPONENT_COUNT>
1

> <PUBCHEM_CACTVS_TAUTO_COUNT>
16

> <PUBCHEM_COORDINATE_TYPE>
1
5
255

> <PUBCHEM_BONDANNOTATIONS>
1  44  8
1  45  8
20  10  6
12  42  8
12  44  8
13  49  8
13  50  8
2  43  8
2  50  8
23  27  8
23  28  8
24  30  8
24  31  8
27  33  8
28  34  8
16  3  5
30  35  8
31  36  8
33  37  8
34  37  8
35  38  8
36  38  8
42  45  8
43  49  8
14  8  6
17  9  5

$$$$
